<?xml version="1.0" encoding="UTF-8"?>

<!-- generated on 2025-11-03 21:49:41 by Eclipse SUMO netconvert Version 1.24.0
<netconvertConfiguration xmlns:xsi="http://www.w3.org/2001/XMLSchema-instance" xsi:noNamespaceSchemaLocation="http://sumo.dlr.de/xsd/netconvertConfiguration.xsd">

    <input>
        <node-files value="nodes.nod.xml"/>
        <edge-files value="edges.edg.xml"/>
    </input>

    <output>
        <output-file value="four_cross.net.xml"/>
    </output>

</netconvertConfiguration>
-->

<net version="1.20" junctionCornerDetail="5" limitTurnSpeed="5.50" xmlns:xsi="http://www.w3.org/2001/XMLSchema-instance" xsi:noNamespaceSchemaLocation="http://sumo.dlr.de/xsd/net_file.xsd">

    <location netOffset="100.00,100.00" convBoundary="0.00,0.00,400.00,400.00" origBoundary="-100.00,-100.00,300.00,300.00" projParameter="!"/>

    <edge id=":east_out_n_0" function="internal">
        <lane id=":east_out_n_0_0" index="0" speed="3.65" length="4.67" shape="400.00,298.40 401.20,299.20 401.60,300.00 401.20,300.80 400.00,301.60"/>
    </edge>
    <edge id=":east_out_s_0" function="internal">
        <lane id=":east_out_s_0_0" index="0" speed="3.65" length="4.67" shape="400.00,98.40 401.20,99.20 401.60,100.00 401.20,100.80 400.00,101.60"/>
    </edge>
    <edge id=":ne_0" function="internal">
        <lane id=":ne_0_0" index="0" speed="6.51" length="9.03" shape="295.20,310.40 294.85,307.95 293.80,306.20 292.05,305.15 289.60,304.80"/>
    </edge>
    <edge id=":ne_1" function="internal">
        <lane id=":ne_1_0" index="0" speed="13.90" length="20.80" shape="295.20,310.40 295.20,289.60"/>
        <lane id=":ne_1_1" index="1" speed="13.90" length="20.80" shape="298.40,310.40 298.40,289.60"/>
    </edge>
    <edge id=":ne_3" function="internal">
        <lane id=":ne_3_0" index="0" speed="9.26" length="5.01" shape="298.40,310.40 299.11,305.44"/>
    </edge>
    <edge id=":ne_4" function="internal">
        <lane id=":ne_4_0" index="0" speed="3.65" length="1.44" shape="298.40,310.40 299.20,309.20"/>
    </edge>
    <edge id=":ne_20" function="internal">
        <lane id=":ne_20_0" index="0" speed="9.26" length="14.34" shape="299.11,305.44 299.15,305.15 301.40,301.40 305.15,299.15 310.40,298.40"/>
    </edge>
    <edge id=":ne_21" function="internal">
        <lane id=":ne_21_0" index="0" speed="3.65" length="3.23" shape="299.20,309.20 300.00,308.80 300.80,309.20 301.60,310.40"/>
    </edge>
    <edge id=":ne_5" function="internal">
        <lane id=":ne_5_0" index="0" speed="6.51" length="9.03" shape="310.40,304.80 307.95,305.15 306.20,306.20 305.15,307.95 304.80,310.40"/>
    </edge>
    <edge id=":ne_6" function="internal">
        <lane id=":ne_6_0" index="0" speed="13.90" length="20.80" shape="310.40,304.80 289.60,304.80"/>
        <lane id=":ne_6_1" index="1" speed="13.90" length="20.80" shape="310.40,301.60 289.60,301.60"/>
    </edge>
    <edge id=":ne_8" function="internal">
        <lane id=":ne_8_0" index="0" speed="9.26" length="5.01" shape="310.40,301.60 305.44,300.89"/>
    </edge>
    <edge id=":ne_9" function="internal">
        <lane id=":ne_9_0" index="0" speed="3.65" length="1.44" shape="310.40,301.60 309.20,300.80"/>
    </edge>
    <edge id=":ne_22" function="internal">
        <lane id=":ne_22_0" index="0" speed="9.26" length="14.34" shape="305.44,300.89 305.15,300.85 301.40,298.60 299.15,294.85 298.40,289.60"/>
    </edge>
    <edge id=":ne_23" function="internal">
        <lane id=":ne_23_0" index="0" speed="3.65" length="3.23" shape="309.20,300.80 308.80,300.00 309.20,299.20 310.40,298.40"/>
    </edge>
    <edge id=":ne_10" function="internal">
        <lane id=":ne_10_0" index="0" speed="6.51" length="9.03" shape="304.80,289.60 305.15,292.05 306.20,293.80 307.95,294.85 310.40,295.20"/>
    </edge>
    <edge id=":ne_11" function="internal">
        <lane id=":ne_11_0" index="0" speed="13.90" length="20.80" shape="304.80,289.60 304.80,310.40"/>
        <lane id=":ne_11_1" index="1" speed="13.90" length="20.80" shape="301.60,289.60 301.60,310.40"/>
    </edge>
    <edge id=":ne_13" function="internal">
        <lane id=":ne_13_0" index="0" speed="9.26" length="5.01" shape="301.60,289.60 300.89,294.56"/>
    </edge>
    <edge id=":ne_14" function="internal">
        <lane id=":ne_14_0" index="0" speed="3.65" length="1.44" shape="301.60,289.60 300.80,290.80"/>
    </edge>
    <edge id=":ne_24" function="internal">
        <lane id=":ne_24_0" index="0" speed="9.26" length="14.34" shape="300.89,294.56 300.85,294.85 298.60,298.60 294.85,300.85 289.60,301.60"/>
    </edge>
    <edge id=":ne_25" function="internal">
        <lane id=":ne_25_0" index="0" speed="3.65" length="3.23" shape="300.80,290.80 300.00,291.20 299.20,290.80 298.40,289.60"/>
    </edge>
    <edge id=":ne_15" function="internal">
        <lane id=":ne_15_0" index="0" speed="6.51" length="9.03" shape="289.60,295.20 292.05,294.85 293.80,293.80 294.85,292.05 295.20,289.60"/>
    </edge>
    <edge id=":ne_16" function="internal">
        <lane id=":ne_16_0" index="0" speed="13.90" length="20.80" shape="289.60,295.20 310.40,295.20"/>
        <lane id=":ne_16_1" index="1" speed="13.90" length="20.80" shape="289.60,298.40 310.40,298.40"/>
    </edge>
    <edge id=":ne_18" function="internal">
        <lane id=":ne_18_0" index="0" speed="9.26" length="5.01" shape="289.60,298.40 294.56,299.11"/>
    </edge>
    <edge id=":ne_19" function="internal">
        <lane id=":ne_19_0" index="0" speed="3.65" length="1.44" shape="289.60,298.40 290.80,299.20"/>
    </edge>
    <edge id=":ne_26" function="internal">
        <lane id=":ne_26_0" index="0" speed="9.26" length="14.34" shape="294.56,299.11 294.85,299.15 298.60,301.40 300.85,305.15 301.60,310.40"/>
    </edge>
    <edge id=":ne_27" function="internal">
        <lane id=":ne_27_0" index="0" speed="3.65" length="3.23" shape="290.80,299.20 291.20,300.00 290.80,300.80 289.60,301.60"/>
    </edge>
    <edge id=":north_in_e_0" function="internal">
        <lane id=":north_in_e_0_0" index="0" speed="3.65" length="4.67" shape="301.60,400.00 300.80,401.20 300.00,401.60 299.20,401.20 298.40,400.00"/>
    </edge>
    <edge id=":north_in_w_0" function="internal">
        <lane id=":north_in_w_0_0" index="0" speed="3.65" length="4.67" shape="101.60,400.00 100.80,401.20 100.00,401.60 99.20,401.20 98.40,400.00"/>
    </edge>
    <edge id=":nw_0" function="internal">
        <lane id=":nw_0_0" index="0" speed="6.51" length="9.03" shape="95.20,310.40 94.85,307.95 93.80,306.20 92.05,305.15 89.60,304.80"/>
    </edge>
    <edge id=":nw_1" function="internal">
        <lane id=":nw_1_0" index="0" speed="13.90" length="20.80" shape="95.20,310.40 95.20,289.60"/>
        <lane id=":nw_1_1" index="1" speed="13.90" length="20.80" shape="98.40,310.40 98.40,289.60"/>
    </edge>
    <edge id=":nw_3" function="internal">
        <lane id=":nw_3_0" index="0" speed="9.26" length="5.01" shape="98.40,310.40 99.11,305.44"/>
    </edge>
    <edge id=":nw_4" function="internal">
        <lane id=":nw_4_0" index="0" speed="3.65" length="1.44" shape="98.40,310.40 99.20,309.20"/>
    </edge>
    <edge id=":nw_20" function="internal">
        <lane id=":nw_20_0" index="0" speed="9.26" length="14.34" shape="99.11,305.44 99.15,305.15 101.40,301.40 105.15,299.15 110.40,298.40"/>
    </edge>
    <edge id=":nw_21" function="internal">
        <lane id=":nw_21_0" index="0" speed="3.65" length="3.23" shape="99.20,309.20 100.00,308.80 100.80,309.20 101.60,310.40"/>
    </edge>
    <edge id=":nw_5" function="internal">
        <lane id=":nw_5_0" index="0" speed="6.51" length="9.03" shape="110.40,304.80 107.95,305.15 106.20,306.20 105.15,307.95 104.80,310.40"/>
    </edge>
    <edge id=":nw_6" function="internal">
        <lane id=":nw_6_0" index="0" speed="13.90" length="20.80" shape="110.40,304.80 89.60,304.80"/>
        <lane id=":nw_6_1" index="1" speed="13.90" length="20.80" shape="110.40,301.60 89.60,301.60"/>
    </edge>
    <edge id=":nw_8" function="internal">
        <lane id=":nw_8_0" index="0" speed="9.26" length="5.01" shape="110.40,301.60 105.44,300.89"/>
    </edge>
    <edge id=":nw_9" function="internal">
        <lane id=":nw_9_0" index="0" speed="3.65" length="1.44" shape="110.40,301.60 109.20,300.80"/>
    </edge>
    <edge id=":nw_22" function="internal">
        <lane id=":nw_22_0" index="0" speed="9.26" length="14.34" shape="105.44,300.89 105.15,300.85 101.40,298.60 99.15,294.85 98.40,289.60"/>
    </edge>
    <edge id=":nw_23" function="internal">
        <lane id=":nw_23_0" index="0" speed="3.65" length="3.23" shape="109.20,300.80 108.80,300.00 109.20,299.20 110.40,298.40"/>
    </edge>
    <edge id=":nw_10" function="internal">
        <lane id=":nw_10_0" index="0" speed="6.51" length="9.03" shape="104.80,289.60 105.15,292.05 106.20,293.80 107.95,294.85 110.40,295.20"/>
    </edge>
    <edge id=":nw_11" function="internal">
        <lane id=":nw_11_0" index="0" speed="13.90" length="20.80" shape="104.80,289.60 104.80,310.40"/>
        <lane id=":nw_11_1" index="1" speed="13.90" length="20.80" shape="101.60,289.60 101.60,310.40"/>
    </edge>
    <edge id=":nw_13" function="internal">
        <lane id=":nw_13_0" index="0" speed="9.26" length="5.01" shape="101.60,289.60 100.89,294.56"/>
    </edge>
    <edge id=":nw_14" function="internal">
        <lane id=":nw_14_0" index="0" speed="3.65" length="1.44" shape="101.60,289.60 100.80,290.80"/>
    </edge>
    <edge id=":nw_24" function="internal">
        <lane id=":nw_24_0" index="0" speed="9.26" length="14.34" shape="100.89,294.56 100.85,294.85 98.60,298.60 94.85,300.85 89.60,301.60"/>
    </edge>
    <edge id=":nw_25" function="internal">
        <lane id=":nw_25_0" index="0" speed="3.65" length="3.23" shape="100.80,290.80 100.00,291.20 99.20,290.80 98.40,289.60"/>
    </edge>
    <edge id=":nw_15" function="internal">
        <lane id=":nw_15_0" index="0" speed="6.51" length="9.03" shape="89.60,295.20 92.05,294.85 93.80,293.80 94.85,292.05 95.20,289.60"/>
    </edge>
    <edge id=":nw_16" function="internal">
        <lane id=":nw_16_0" index="0" speed="13.90" length="20.80" shape="89.60,295.20 110.40,295.20"/>
        <lane id=":nw_16_1" index="1" speed="13.90" length="20.80" shape="89.60,298.40 110.40,298.40"/>
    </edge>
    <edge id=":nw_18" function="internal">
        <lane id=":nw_18_0" index="0" speed="9.26" length="5.01" shape="89.60,298.40 94.56,299.11"/>
    </edge>
    <edge id=":nw_19" function="internal">
        <lane id=":nw_19_0" index="0" speed="3.65" length="1.44" shape="89.60,298.40 90.80,299.20"/>
    </edge>
    <edge id=":nw_26" function="internal">
        <lane id=":nw_26_0" index="0" speed="9.26" length="14.34" shape="94.56,299.11 94.85,299.15 98.60,301.40 100.85,305.15 101.60,310.40"/>
    </edge>
    <edge id=":nw_27" function="internal">
        <lane id=":nw_27_0" index="0" speed="3.65" length="3.23" shape="90.80,299.20 91.20,300.00 90.80,300.80 89.60,301.60"/>
    </edge>
    <edge id=":se_0" function="internal">
        <lane id=":se_0_0" index="0" speed="6.51" length="9.03" shape="295.20,110.40 294.85,107.95 293.80,106.20 292.05,105.15 289.60,104.80"/>
    </edge>
    <edge id=":se_1" function="internal">
        <lane id=":se_1_0" index="0" speed="13.90" length="20.80" shape="295.20,110.40 295.20,89.60"/>
        <lane id=":se_1_1" index="1" speed="13.90" length="20.80" shape="298.40,110.40 298.40,89.60"/>
    </edge>
    <edge id=":se_3" function="internal">
        <lane id=":se_3_0" index="0" speed="9.26" length="5.01" shape="298.40,110.40 299.11,105.44"/>
    </edge>
    <edge id=":se_4" function="internal">
        <lane id=":se_4_0" index="0" speed="3.65" length="1.44" shape="298.40,110.40 299.20,109.20"/>
    </edge>
    <edge id=":se_20" function="internal">
        <lane id=":se_20_0" index="0" speed="9.26" length="14.34" shape="299.11,105.44 299.15,105.15 301.40,101.40 305.15,99.15 310.40,98.40"/>
    </edge>
    <edge id=":se_21" function="internal">
        <lane id=":se_21_0" index="0" speed="3.65" length="3.23" shape="299.20,109.20 300.00,108.80 300.80,109.20 301.60,110.40"/>
    </edge>
    <edge id=":se_5" function="internal">
        <lane id=":se_5_0" index="0" speed="6.51" length="9.03" shape="310.40,104.80 307.95,105.15 306.20,106.20 305.15,107.95 304.80,110.40"/>
    </edge>
    <edge id=":se_6" function="internal">
        <lane id=":se_6_0" index="0" speed="13.90" length="20.80" shape="310.40,104.80 289.60,104.80"/>
        <lane id=":se_6_1" index="1" speed="13.90" length="20.80" shape="310.40,101.60 289.60,101.60"/>
    </edge>
    <edge id=":se_8" function="internal">
        <lane id=":se_8_0" index="0" speed="9.26" length="5.01" shape="310.40,101.60 305.44,100.89"/>
    </edge>
    <edge id=":se_9" function="internal">
        <lane id=":se_9_0" index="0" speed="3.65" length="1.44" shape="310.40,101.60 309.20,100.80"/>
    </edge>
    <edge id=":se_22" function="internal">
        <lane id=":se_22_0" index="0" speed="9.26" length="14.34" shape="305.44,100.89 305.15,100.85 301.40,98.60 299.15,94.85 298.40,89.60"/>
    </edge>
    <edge id=":se_23" function="internal">
        <lane id=":se_23_0" index="0" speed="3.65" length="3.23" shape="309.20,100.80 308.80,100.00 309.20,99.20 310.40,98.40"/>
    </edge>
    <edge id=":se_10" function="internal">
        <lane id=":se_10_0" index="0" speed="6.51" length="9.03" shape="304.80,89.60 305.15,92.05 306.20,93.80 307.95,94.85 310.40,95.20"/>
    </edge>
    <edge id=":se_11" function="internal">
        <lane id=":se_11_0" index="0" speed="13.90" length="20.80" shape="304.80,89.60 304.80,110.40"/>
        <lane id=":se_11_1" index="1" speed="13.90" length="20.80" shape="301.60,89.60 301.60,110.40"/>
    </edge>
    <edge id=":se_13" function="internal">
        <lane id=":se_13_0" index="0" speed="9.26" length="5.01" shape="301.60,89.60 300.89,94.56"/>
    </edge>
    <edge id=":se_14" function="internal">
        <lane id=":se_14_0" index="0" speed="3.65" length="1.44" shape="301.60,89.60 300.80,90.80"/>
    </edge>
    <edge id=":se_24" function="internal">
        <lane id=":se_24_0" index="0" speed="9.26" length="14.34" shape="300.89,94.56 300.85,94.85 298.60,98.60 294.85,100.85 289.60,101.60"/>
    </edge>
    <edge id=":se_25" function="internal">
        <lane id=":se_25_0" index="0" speed="3.65" length="3.23" shape="300.80,90.80 300.00,91.20 299.20,90.80 298.40,89.60"/>
    </edge>
    <edge id=":se_15" function="internal">
        <lane id=":se_15_0" index="0" speed="6.51" length="9.03" shape="289.60,95.20 292.05,94.85 293.80,93.80 294.85,92.05 295.20,89.60"/>
    </edge>
    <edge id=":se_16" function="internal">
        <lane id=":se_16_0" index="0" speed="13.90" length="20.80" shape="289.60,95.20 310.40,95.20"/>
        <lane id=":se_16_1" index="1" speed="13.90" length="20.80" shape="289.60,98.40 310.40,98.40"/>
    </edge>
    <edge id=":se_18" function="internal">
        <lane id=":se_18_0" index="0" speed="9.26" length="5.01" shape="289.60,98.40 294.56,99.11"/>
    </edge>
    <edge id=":se_19" function="internal">
        <lane id=":se_19_0" index="0" speed="3.65" length="1.44" shape="289.60,98.40 290.80,99.20"/>
    </edge>
    <edge id=":se_26" function="internal">
        <lane id=":se_26_0" index="0" speed="9.26" length="14.34" shape="294.56,99.11 294.85,99.15 298.60,101.40 300.85,105.15 301.60,110.40"/>
    </edge>
    <edge id=":se_27" function="internal">
        <lane id=":se_27_0" index="0" speed="3.65" length="3.23" shape="290.80,99.20 291.20,100.00 290.80,100.80 289.60,101.60"/>
    </edge>
    <edge id=":south_out_e_0" function="internal">
        <lane id=":south_out_e_0_0" index="0" speed="3.65" length="4.67" shape="298.40,0.00 299.20,-1.20 300.00,-1.60 300.80,-1.20 301.60,0.00"/>
    </edge>
    <edge id=":south_out_w_0" function="internal">
        <lane id=":south_out_w_0_0" index="0" speed="3.65" length="4.67" shape="98.40,0.00 99.20,-1.20 100.00,-1.60 100.80,-1.20 101.60,0.00"/>
    </edge>
    <edge id=":sw_0" function="internal">
        <lane id=":sw_0_0" index="0" speed="6.51" length="9.03" shape="95.20,110.40 94.85,107.95 93.80,106.20 92.05,105.15 89.60,104.80"/>
    </edge>
    <edge id=":sw_1" function="internal">
        <lane id=":sw_1_0" index="0" speed="13.90" length="20.80" shape="95.20,110.40 95.20,89.60"/>
        <lane id=":sw_1_1" index="1" speed="13.90" length="20.80" shape="98.40,110.40 98.40,89.60"/>
    </edge>
    <edge id=":sw_3" function="internal">
        <lane id=":sw_3_0" index="0" speed="9.26" length="5.01" shape="98.40,110.40 99.11,105.44"/>
    </edge>
    <edge id=":sw_4" function="internal">
        <lane id=":sw_4_0" index="0" speed="3.65" length="1.44" shape="98.40,110.40 99.20,109.20"/>
    </edge>
    <edge id=":sw_20" function="internal">
        <lane id=":sw_20_0" index="0" speed="9.26" length="14.34" shape="99.11,105.44 99.15,105.15 101.40,101.40 105.15,99.15 110.40,98.40"/>
    </edge>
    <edge id=":sw_21" function="internal">
        <lane id=":sw_21_0" index="0" speed="3.65" length="3.23" shape="99.20,109.20 100.00,108.80 100.80,109.20 101.60,110.40"/>
    </edge>
    <edge id=":sw_5" function="internal">
        <lane id=":sw_5_0" index="0" speed="6.51" length="9.03" shape="110.40,104.80 107.95,105.15 106.20,106.20 105.15,107.95 104.80,110.40"/>
    </edge>
    <edge id=":sw_6" function="internal">
        <lane id=":sw_6_0" index="0" speed="13.90" length="20.80" shape="110.40,104.80 89.60,104.80"/>
        <lane id=":sw_6_1" index="1" speed="13.90" length="20.80" shape="110.40,101.60 89.60,101.60"/>
    </edge>
    <edge id=":sw_8" function="internal">
        <lane id=":sw_8_0" index="0" speed="9.26" length="5.01" shape="110.40,101.60 105.44,100.89"/>
    </edge>
    <edge id=":sw_9" function="internal">
        <lane id=":sw_9_0" index="0" speed="3.65" length="1.44" shape="110.40,101.60 109.20,100.80"/>
    </edge>
    <edge id=":sw_22" function="internal">
        <lane id=":sw_22_0" index="0" speed="9.26" length="14.34" shape="105.44,100.89 105.15,100.85 101.40,98.60 99.15,94.85 98.40,89.60"/>
    </edge>
    <edge id=":sw_23" function="internal">
        <lane id=":sw_23_0" index="0" speed="3.65" length="3.23" shape="109.20,100.80 108.80,100.00 109.20,99.20 110.40,98.40"/>
    </edge>
    <edge id=":sw_10" function="internal">
        <lane id=":sw_10_0" index="0" speed="6.51" length="9.03" shape="104.80,89.60 105.15,92.05 106.20,93.80 107.95,94.85 110.40,95.20"/>
    </edge>
    <edge id=":sw_11" function="internal">
        <lane id=":sw_11_0" index="0" speed="13.90" length="20.80" shape="104.80,89.60 104.80,110.40"/>
        <lane id=":sw_11_1" index="1" speed="13.90" length="20.80" shape="101.60,89.60 101.60,110.40"/>
    </edge>
    <edge id=":sw_13" function="internal">
        <lane id=":sw_13_0" index="0" speed="9.26" length="5.01" shape="101.60,89.60 100.89,94.56"/>
    </edge>
    <edge id=":sw_14" function="internal">
        <lane id=":sw_14_0" index="0" speed="3.65" length="1.44" shape="101.60,89.60 100.80,90.80"/>
    </edge>
    <edge id=":sw_24" function="internal">
        <lane id=":sw_24_0" index="0" speed="9.26" length="14.34" shape="100.89,94.56 100.85,94.85 98.60,98.60 94.85,100.85 89.60,101.60"/>
    </edge>
    <edge id=":sw_25" function="internal">
        <lane id=":sw_25_0" index="0" speed="3.65" length="3.23" shape="100.80,90.80 100.00,91.20 99.20,90.80 98.40,89.60"/>
    </edge>
    <edge id=":sw_15" function="internal">
        <lane id=":sw_15_0" index="0" speed="6.51" length="9.03" shape="89.60,95.20 92.05,94.85 93.80,93.80 94.85,92.05 95.20,89.60"/>
    </edge>
    <edge id=":sw_16" function="internal">
        <lane id=":sw_16_0" index="0" speed="13.90" length="20.80" shape="89.60,95.20 110.40,95.20"/>
        <lane id=":sw_16_1" index="1" speed="13.90" length="20.80" shape="89.60,98.40 110.40,98.40"/>
    </edge>
    <edge id=":sw_18" function="internal">
        <lane id=":sw_18_0" index="0" speed="9.26" length="5.01" shape="89.60,98.40 94.56,99.11"/>
    </edge>
    <edge id=":sw_19" function="internal">
        <lane id=":sw_19_0" index="0" speed="3.65" length="1.44" shape="89.60,98.40 90.80,99.20"/>
    </edge>
    <edge id=":sw_26" function="internal">
        <lane id=":sw_26_0" index="0" speed="9.26" length="14.34" shape="94.56,99.11 94.85,99.15 98.60,101.40 100.85,105.15 101.60,110.40"/>
    </edge>
    <edge id=":sw_27" function="internal">
        <lane id=":sw_27_0" index="0" speed="3.65" length="3.23" shape="90.80,99.20 91.20,100.00 90.80,100.80 89.60,101.60"/>
    </edge>
    <edge id=":west_in_n_0" function="internal">
        <lane id=":west_in_n_0_0" index="0" speed="3.65" length="4.67" shape="0.00,301.60 -1.20,300.80 -1.60,300.00 -1.20,299.20 0.00,298.40"/>
    </edge>
    <edge id=":west_in_s_0" function="internal">
        <lane id=":west_in_s_0_0" index="0" speed="3.65" length="4.67" shape="0.00,101.60 -1.20,100.80 -1.60,100.00 -1.20,99.20 0.00,98.40"/>
    </edge>

    <edge id="east_in_se" from="east_out_s" to="se" priority="-1">
        <lane id="east_in_se_0" index="0" speed="13.90" length="89.60" shape="400.00,104.80 310.40,104.80"/>
        <lane id="east_in_se_1" index="1" speed="13.90" length="89.60" shape="400.00,101.60 310.40,101.60"/>
    </edge>
    <edge id="east_out_se" from="se" to="east_out_s" priority="-1">
        <lane id="east_out_se_0" index="0" speed="13.90" length="89.60" shape="310.40,95.20 400.00,95.20"/>
        <lane id="east_out_se_1" index="1" speed="13.90" length="89.60" shape="310.40,98.40 400.00,98.40"/>
    </edge>
    <edge id="est_in_ne" from="east_out_n" to="ne" priority="-1">
        <lane id="est_in_ne_0" index="0" speed="13.90" length="89.60" shape="400.00,304.80 310.40,304.80"/>
        <lane id="est_in_ne_1" index="1" speed="13.90" length="89.60" shape="400.00,301.60 310.40,301.60"/>
    </edge>
    <edge id="est_out_ne" from="ne" to="east_out_n" priority="-1">
        <lane id="est_out_ne_0" index="0" speed="13.90" length="89.60" shape="310.40,295.20 400.00,295.20"/>
        <lane id="est_out_ne_1" index="1" speed="13.90" length="89.60" shape="310.40,298.40 400.00,298.40"/>
    </edge>
    <edge id="ne_nw" from="ne" to="nw" priority="-1">
        <lane id="ne_nw_0" index="0" speed="13.90" length="179.20" shape="289.60,304.80 110.40,304.80"/>
        <lane id="ne_nw_1" index="1" speed="13.90" length="179.20" shape="289.60,301.60 110.40,301.60"/>
    </edge>
    <edge id="ne_se" from="ne" to="se" priority="-1">
        <lane id="ne_se_0" index="0" speed="13.90" length="179.20" shape="295.20,289.60 295.20,110.40"/>
        <lane id="ne_se_1" index="1" speed="13.90" length="179.20" shape="298.40,289.60 298.40,110.40"/>
    </edge>
    <edge id="north_in_ne" from="north_in_e" to="ne" priority="-1">
        <lane id="north_in_ne_0" index="0" speed="13.90" length="89.60" shape="295.20,400.00 295.20,310.40"/>
        <lane id="north_in_ne_1" index="1" speed="13.90" length="89.60" shape="298.40,400.00 298.40,310.40"/>
    </edge>
    <edge id="north_in_nw" from="north_in_w" to="nw" priority="-1">
        <lane id="north_in_nw_0" index="0" speed="13.90" length="89.60" shape="95.20,400.00 95.20,310.40"/>
        <lane id="north_in_nw_1" index="1" speed="13.90" length="89.60" shape="98.40,400.00 98.40,310.40"/>
    </edge>
    <edge id="north_out_ne" from="ne" to="north_in_e" priority="-1">
        <lane id="north_out_ne_0" index="0" speed="13.90" length="89.60" shape="304.80,310.40 304.80,400.00"/>
        <lane id="north_out_ne_1" index="1" speed="13.90" length="89.60" shape="301.60,310.40 301.60,400.00"/>
    </edge>
    <edge id="north_out_nw" from="nw" to="north_in_w" priority="-1">
        <lane id="north_out_nw_0" index="0" speed="13.90" length="89.60" shape="104.80,310.40 104.80,400.00"/>
        <lane id="north_out_nw_1" index="1" speed="13.90" length="89.60" shape="101.60,310.40 101.60,400.00"/>
    </edge>
    <edge id="nw_ne" from="nw" to="ne" priority="-1">
        <lane id="nw_ne_0" index="0" speed="13.90" length="179.20" shape="110.40,295.20 289.60,295.20"/>
        <lane id="nw_ne_1" index="1" speed="13.90" length="179.20" shape="110.40,298.40 289.60,298.40"/>
    </edge>
    <edge id="nw_sw" from="nw" to="sw" priority="-1">
        <lane id="nw_sw_0" index="0" speed="13.90" length="179.20" shape="95.20,289.60 95.20,110.40"/>
        <lane id="nw_sw_1" index="1" speed="13.90" length="179.20" shape="98.40,289.60 98.40,110.40"/>
    </edge>
    <edge id="se_ne" from="se" to="ne" priority="-1">
        <lane id="se_ne_0" index="0" speed="13.90" length="179.20" shape="304.80,110.40 304.80,289.60"/>
        <lane id="se_ne_1" index="1" speed="13.90" length="179.20" shape="301.60,110.40 301.60,289.60"/>
    </edge>
    <edge id="se_sw" from="se" to="sw" priority="-1">
        <lane id="se_sw_0" index="0" speed="13.90" length="179.20" shape="289.60,104.80 110.40,104.80"/>
        <lane id="se_sw_1" index="1" speed="13.90" length="179.20" shape="289.60,101.60 110.40,101.60"/>
    </edge>
    <edge id="south_in_se" from="south_out_e" to="se" priority="-1">
        <lane id="south_in_se_0" index="0" speed="13.90" length="89.60" shape="304.80,0.00 304.80,89.60"/>
        <lane id="south_in_se_1" index="1" speed="13.90" length="89.60" shape="301.60,0.00 301.60,89.60"/>
    </edge>
    <edge id="south_in_sw" from="south_out_w" to="sw" priority="-1">
        <lane id="south_in_sw_0" index="0" speed="13.90" length="89.60" shape="104.80,0.00 104.80,89.60"/>
        <lane id="south_in_sw_1" index="1" speed="13.90" length="89.60" shape="101.60,0.00 101.60,89.60"/>
    </edge>
    <edge id="south_out_se" from="se" to="south_out_e" priority="-1">
        <lane id="south_out_se_0" index="0" speed="13.90" length="89.60" shape="295.20,89.60 295.20,0.00"/>
        <lane id="south_out_se_1" index="1" speed="13.90" length="89.60" shape="298.40,89.60 298.40,0.00"/>
    </edge>
    <edge id="south_out_sw" from="sw" to="south_out_w" priority="-1">
        <lane id="south_out_sw_0" index="0" speed="13.90" length="89.60" shape="95.20,89.60 95.20,0.00"/>
        <lane id="south_out_sw_1" index="1" speed="13.90" length="89.60" shape="98.40,89.60 98.40,0.00"/>
    </edge>
    <edge id="sw_nw" from="sw" to="nw" priority="-1">
        <lane id="sw_nw_0" index="0" speed="13.90" length="179.20" shape="104.80,110.40 104.80,289.60"/>
        <lane id="sw_nw_1" index="1" speed="13.90" length="179.20" shape="101.60,110.40 101.60,289.60"/>
    </edge>
    <edge id="sw_se" from="sw" to="se" priority="-1">
        <lane id="sw_se_0" index="0" speed="13.90" length="179.20" shape="110.40,95.20 289.60,95.20"/>
        <lane id="sw_se_1" index="1" speed="13.90" length="179.20" shape="110.40,98.40 289.60,98.40"/>
    </edge>
    <edge id="west_in_nw" from="west_in_n" to="nw" priority="-1">
        <lane id="west_in_nw_0" index="0" speed="13.90" length="89.60" shape="0.00,295.20 89.60,295.20"/>
        <lane id="west_in_nw_1" index="1" speed="13.90" length="89.60" shape="0.00,298.40 89.60,298.40"/>
    </edge>
    <edge id="west_in_sw" from="west_in_s" to="sw" priority="-1">
        <lane id="west_in_sw_0" index="0" speed="13.90" length="89.60" shape="0.00,95.20 89.60,95.20"/>
        <lane id="west_in_sw_1" index="1" speed="13.90" length="89.60" shape="0.00,98.40 89.60,98.40"/>
    </edge>
    <edge id="west_out_nw" from="nw" to="west_in_n" priority="-1">
        <lane id="west_out_nw_0" index="0" speed="13.90" length="89.60" shape="89.60,304.80 0.00,304.80"/>
        <lane id="west_out_nw_1" index="1" speed="13.90" length="89.60" shape="89.60,301.60 0.00,301.60"/>
    </edge>
    <edge id="west_out_sw" from="sw" to="west_in_s" priority="-1">
        <lane id="west_out_sw_0" index="0" speed="13.90" length="89.60" shape="89.60,104.80 0.00,104.80"/>
        <lane id="west_out_sw_1" index="1" speed="13.90" length="89.60" shape="89.60,101.60 0.00,101.60"/>
    </edge>

    <tlLogic id="ne" type="static" programID="0" offset="0">
        <phase duration="42" state="GGGggrrrrrGGGggrrrrr"/>
        <phase duration="3"  state="yyyyyrrrrryyyyyrrrrr"/>
        <phase duration="42" state="rrrrrGGGggrrrrrGGGgg"/>
        <phase duration="3"  state="rrrrryyyyyrrrrryyyyy"/>
    </tlLogic>
    <tlLogic id="nw" type="static" programID="0" offset="0">
        <phase duration="42" state="GGGggrrrrrGGGggrrrrr"/>
        <phase duration="3"  state="yyyyyrrrrryyyyyrrrrr"/>
        <phase duration="42" state="rrrrrGGGggrrrrrGGGgg"/>
        <phase duration="3"  state="rrrrryyyyyrrrrryyyyy"/>
    </tlLogic>
    <tlLogic id="se" type="static" programID="0" offset="0">
        <phase duration="42" state="GGGggrrrrrGGGggrrrrr"/>
        <phase duration="3"  state="yyyyyrrrrryyyyyrrrrr"/>
        <phase duration="42" state="rrrrrGGGggrrrrrGGGgg"/>
        <phase duration="3"  state="rrrrryyyyyrrrrryyyyy"/>
    </tlLogic>
    <tlLogic id="sw" type="static" programID="0" offset="0">
        <phase duration="42" state="GGGggrrrrrGGGggrrrrr"/>
        <phase duration="3"  state="yyyyyrrrrryyyyyrrrrr"/>
        <phase duration="42" state="rrrrrGGGggrrrrrGGGgg"/>
        <phase duration="3"  state="rrrrryyyyyrrrrryyyyy"/>
    </tlLogic>

    <junction id="east_out_n" type="priority" x="400.00" y="300.00" incLanes="est_out_ne_0 est_out_ne_1" intLanes=":east_out_n_0_0" shape="400.00,300.00 400.00,293.60 400.00,300.00">
        <request index="0" response="0" foes="0" cont="0"/>
    </junction>
    <junction id="east_out_s" type="priority" x="400.00" y="100.00" incLanes="east_out_se_0 east_out_se_1" intLanes=":east_out_s_0_0" shape="400.00,100.00 400.00,93.60 400.00,100.00">
        <request index="0" response="0" foes="0" cont="0"/>
    </junction>